Input Parameters:
   integrator                     = md
   tinit                          = 0
   dt                             = 0.002
   nsteps                         = 50000
   init-step                      = 0
   simulation-part                = 1
   mts                            = false
   comm-mode                      = Linear
   nstcomm                        = 100
   bd-fric                        = 0
   ld-seed                        = -1079050306
   emtol                          = 10
   emstep                         = 0.01
   niter                          = 20
   fcstep                         = 0
   nstcgsteep                     = 1000
   nbfgscorr                      = 10
   rtpi                           = 0.05
   nstxout                        = 0
   nstvout                        = 0
   nstfout                        = 0
   nstlog                         = 1000
   nstcalcenergy                  = 100
   nstenergy                      = 1000
   nstxout-compressed             = 250
   compressed-x-precision         = 1000
   cutoff-scheme                  = Verlet
   nstlist                        = 40
   pbc                            = xyz
   periodic-molecules             = false
   verlet-buffer-tolerance        = 0.005
   rlist                          = 1.104
   coulombtype                    = PME
   coulomb-modifier               = Potential-shift
   rcoulomb-switch                = 0
   rcoulomb                       = 1
   epsilon-r                      = 1
   epsilon-rf                     = inf
   vdw-type                       = PME
   vdw-modifier                   = Potential-shift
   rvdw-switch                    = 0
   rvdw                           = 1
   DispCorr                       = EnerPres
   table-extension                = 1
   fourierspacing                 = 0.12
   fourier-nx                     = 28
   fourier-ny                     = 28
   fourier-nz                     = 28
   pme-order                      = 4
   ewald-rtol                     = 1e-05
   ewald-rtol-lj                  = 0.001
   lj-pme-comb-rule               = Geometric
   ewald-geometry                 = 3d
   epsilon-surface                = 0
   ensemble-temperature-setting   = constant
   ensemble-temperature           = 300
   tcoupl                         = V-rescale
   nsttcouple                     = 100
   nh-chain-length                = 0
   print-nose-hoover-chain-variables = false
   pcoupl                         = Parrinello-Rahman
   pcoupltype                     = Isotropic
   nstpcouple                     = 100
   tau-p                          = 10
   compressibility (3x3):
      compressibility[    0]={ 4.50000e-05,  0.00000e+00,  0.00000e+00}
      compressibility[    1]={ 0.00000e+00,  4.50000e-05,  0.00000e+00}
      compressibility[    2]={ 0.00000e+00,  0.00000e+00,  4.50000e-05}
   ref-p (3x3):
      ref-p[    0]={ 1.01325e+00,  0.00000e+00,  0.00000e+00}
      ref-p[    1]={ 0.00000e+00,  1.01325e+00,  0.00000e+00}
      ref-p[    2]={ 0.00000e+00,  0.00000e+00,  1.01325e+00}
   refcoord-scaling               = No
   posres-com (3):
      posres-com[0]= 0.00000e+00
      posres-com[1]= 0.00000e+00
      posres-com[2]= 0.00000e+00
   posres-comB (3):
      posres-comB[0]= 0.00000e+00
      posres-comB[1]= 0.00000e+00
      posres-comB[2]= 0.00000e+00
   QMMM                           = false
qm-opts:
   ngQM                           = 0
   constraint-algorithm           = Lincs
   continuation                   = false
   Shake-SOR                      = false
   shake-tol                      = 0.0001
   lincs-order                    = 4
   lincs-iter                     = 1
   lincs-warnangle                = 30
   nwall                          = 0
   wall-type                      = 9-3
   wall-r-linpot                  = -1
   wall-atomtype[0]               = -1
   wall-atomtype[1]               = -1
   wall-density[0]                = 0
   wall-density[1]                = 0
   wall-ewald-zfac                = 3
   pull                           = false
   awh                            = false
   rotation                       = false
   interactiveMD                  = false
   disre                          = No
   disre-weighting                = Conservative
   disre-mixed                    = false
   dr-fc                          = 1000
   dr-tau                         = 0
   nstdisreout                    = 100
   orire-fc                       = 0
   orire-tau                      = 0
   nstorireout                    = 100
   free-energy                    = no
   cos-acceleration               = 0
   deform (3x3):
      deform[    0]={ 0.00000e+00,  0.00000e+00,  0.00000e+00}
      deform[    1]={ 0.00000e+00,  0.00000e+00,  0.00000e+00}
      deform[    2]={ 0.00000e+00,  0.00000e+00,  0.00000e+00}
   simulated-tempering            = false
   swapcoords                     = no
   userint1                       = 0
   userint2                       = 0
   userint3                       = 0
   userint4                       = 0
   userreal1                      = 0
   userreal2                      = 0
   userreal3                      = 0
   userreal4                      = 0
   applied-forces:
     electric-field:
       x:
         E0                       = 0
         omega                    = 0
         t0                       = 0
         sigma                    = 0
       y:
         E0                       = 0
         omega                    = 0
         t0                       = 0
         sigma                    = 0
       z:
         E0                       = 0
         omega                    = 0
         t0                       = 0
         sigma                    = 0
     density-guided-simulation:
       active                     = false
       group                      = protein
       similarity-measure         = inner-product
       atom-spreading-weight      = unity
       force-constant             = 1e+09
       gaussian-transform-spreading-width = 0.2
       gaussian-transform-spreading-range-in-multiples-of-width = 4
       reference-density-filename = reference.mrc
       nst                        = 1
       normalize-densities        = true
       adaptive-force-scaling     = false
       adaptive-force-scaling-time-constant = 4
       shift-vector               =
       transformation-matrix      =
     qmmm-cp2k:
       active                     = false
       qmgroup                    = System
       qmmethod                   = PBE
       qmfilenames                =
       qmcharge                   = 0
       qmmultiplicity             = 1
grpopts:
   nrdf:        6003
   ref-t:         300
   tau-t:           1
annealing:          No
annealing-npoints:           0
   acc:	           0           0           0
   nfreeze:           N           N           N
   energygrp-flags[  0]: 0

Changing nstlist from 40 to 50, rlist from 1.104 to 1.124

Update task can not run on the GPU, because the following condition(s) were not satisfied:

Either PME or short-ranged non-bonded interaction tasks must run on the GPU.
Compatible GPUs must have been found.
Only CUDA and SYCL builds are supported.
PLUMED is not supported.
The number of coupled constraints is higher than supported in the GPU LINCS code.
Chosen GPU implementation does not support constraints.

Initializing Domain Decomposition on 16 ranks
Dynamic load balancing: auto
Using update groups, nr 1002, average size 3.0 atoms, max. radius 0.082 nm
Minimum cell size due to atom displacement: 0.291 nm
Scaling the initial minimum size with 1/0.8 (option -dds) = 1.25
Using 0 separate PME ranks because: there are too few total ranks for efficient splitting
Optimizing the DD grid for 16 cells with a minimum initial size of 0.364 nm
The maximum allowed number of cells is: X 8 Y 8 Z 8
Domain decomposition grid 4 x 4 x 1, separate PME ranks 0
PME domain decomposition: 4 x 4 x 1
Domain decomposition rank 0, coordinates 0 0 0

The initial number of communication pulses is: X 2 Y 2
The initial domain decomposition cell size is: X 0.77 nm Y 0.77 nm

When dynamic load balancing gets turned on, these settings will change to:
The maximum number of communication pulses is: X 3 Y 3
The minimum size for domain decomposition cells is 0.429 nm
The requested allowed shrink of DD cells (option -dds) is: 0.80
The allowed shrink of domain decomposition cells is: X 0.56 Y 0.56

Using 16 MPI processes

Non-default thread affinity set, disabling internal thread affinity

Using 1 OpenMP thread per MPI process

System total charge: 0.000
Will do PME sum in reciprocal space for LJ dispersion interactions.

Using a Gaussian width (1/beta) of 0.298423 nm for LJ Ewald
Will do PME sum in reciprocal space for electrostatic interactions.

Using a Gaussian width (1/beta) of 0.320163 nm for Ewald
Potential shift: LJ r^-12: -1.000e+00 r^-6: -1.000e-03, Ewald -1.000e-05
Initialized non-bonded Coulomb Ewald tables, spacing: 9.33e-04 size: 1073

Using shifted Lennard-Jones, switch between 0 and 1 nm
Long Range LJ corr.: <C6> 1.4080e-07

Using SIMD 4x8 nonbonded short-range kernels

Using a dual 4x8 pair-list setup updated with dynamic pruning:
  outer list: updated every 50 steps, buffer 0.124 nm, rlist 1.124 nm
  inner list: updated every 10 steps, buffer 0.001 nm, rlist 1.001 nm
At tolerance 0.005 kJ/mol/ps per atom, equivalent classical 1x1 list would be:
  outer list: updated every 50 steps, buffer 0.250 nm, rlist 1.250 nm
  inner list: updated every 10 steps, buffer 0.038 nm, rlist 1.038 nm
Removing pbc first time

Linking all bonded interactions to atoms

Intra-simulation communication will occur every 100 steps.

There are: 3002 Atoms
Atom distribution over 16 domains: av 187 stddev 19 min 168 max 205

Constraining the starting coordinates (step 0)

Constraining the coordinates at t0-dt (step 0)
Center of mass motion removal mode is Linear
We have the following groups for center of mass motion removal:
  0:  rest
RMS relative constraint deviation after constraining: 0.00e+00
Initial temperature: 301.722 K

PLUMED: PLUMED is starting
PLUMED: Version: 2.10.0-dev (git: ae54bc52a) compiled on Oct 23 2023 at 18:31:47
PLUMED: Please cite these papers when using PLUMED [1][2]
PLUMED: For further information see the PLUMED web page at http://www.plumed.org
PLUMED: Root: /jet/home/schwinns/src/plumed2/
PLUMED: For installed feature, see /jet/home/schwinns/src/plumed2//src/config/config.txt
PLUMED: Molecular dynamics engine: gromacs
PLUMED: Precision of reals: 4
PLUMED: Running over 16 nodes
PLUMED: Number of threads: 1
PLUMED: Cache line size: 512
PLUMED: Number of atoms: 3002
PLUMED: File suffix:
PLUMED: FILE: plumed_14.dat
PLUMED: Action GROUP
PLUMED:   with label water_group
PLUMED:   list of atoms:
PLUMED:  1 4 7 10 13 16 19 22 25 28 31 34 37 40 43 46 49 52 55 58 61 64 67 70 73
PLUMED:  76 79 82 85 88 91 94 97 100 103 106 109 112 115 118 121 124 127 130 133 136 139 142 145 148
PLUMED:  151 154 157 160 163 166 169 172 175 178 181 184 187 190 193 196 199 202 205 208 211 214 217 220 223
PLUMED:  226 229 232 235 238 241 244 247 250 253 256 259 262 265 268 271 274 277 280 283 286 289 292 295 298
PLUMED:  301 304 307 310 313 316 319 322 325 328 331 334 337 340 343 346 349 352 355 358 361 364 367 370 373
PLUMED:  376 379 382 385 388 391 394 397 400 403 406 409 412 415 418 421 424 427 430 433 436 439 442 445 448
PLUMED:  451 454 457 460 463 466 469 472 475 478 481 484 487 490 493 496 499 502 505 508 511 514 517 520 523
PLUMED:  526 529 532 535 538 541 544 547 550 553 556 559 562 565 568 571 574 577 580 583 586 589 592 595 598
PLUMED:  601 604 607 610 613 616 619 622 625 628 631 634 637 640 643 646 649 652 655 658 661 664 667 670 673
PLUMED:  676 679 682 685 688 691 694 697 700 703 706 709 712 715 718 721 724 727 730 733 736 739 742 745 748
PLUMED:  751 754 757 760 763 766 769 772 775 778 781 784 787 790 793 796 799 802 805 808 811 814 817 820 823
PLUMED:  826 829 832 835 838 841 844 847 850 853 856 859 862 865 868 871 874 877 880 883 886 889 892 895 898
PLUMED:  901 904 907 910 913 916 919 922 925 928 931 934 937 940 943 946 949 952 955 958 961 964 967 970 973
PLUMED:  976 979 982 985 988 991 994 997 1000 1003 1006 1009 1012 1015 1018 1021 1024 1027 1030 1033 1036 1039 1042 1045 1048
PLUMED:  1051 1054 1057 1060 1063 1066 1069 1072 1075 1078 1081 1084 1087 1090 1093 1096 1099 1102 1105 1108 1111 1114 1117 1120 1123
PLUMED:  1126 1129 1132 1135 1138 1141 1144 1147 1150 1153 1156 1159 1162 1165 1168 1171 1174 1177 1180 1183 1186 1189 1192 1195 1198
PLUMED:  1201 1204 1207 1210 1213 1216 1219 1222 1225 1228 1231 1234 1237 1240 1243 1246 1249 1252 1255 1258 1261 1264 1267 1270 1273
PLUMED:  1276 1279 1282 1285 1288 1291 1294 1297 1300 1303 1306 1309 1312 1315 1318 1321 1324 1327 1330 1333 1336 1339 1342 1345 1348
PLUMED:  1351 1354 1357 1360 1363 1366 1369 1372 1375 1378 1381 1384 1387 1390 1393 1396 1399 1402 1405 1408 1411 1414 1417 1420 1423
PLUMED:  1426 1429 1432 1435 1438 1441 1444 1447 1450 1453 1456 1459 1462 1465 1468 1471 1474 1477 1480 1483 1486 1489 1492 1495 1498
PLUMED:  1501 1504 1507 1510 1513 1516 1519 1522 1525 1528 1531 1534 1537 1540 1543 1546 1549 1552 1555 1558 1561 1564 1567 1570 1573
PLUMED:  1576 1579 1582 1585 1588 1591 1594 1597 1600 1603 1606 1609 1612 1615 1618 1621 1624 1627 1630 1633 1636 1639 1642 1645 1648
PLUMED:  1651 1654 1657 1660 1663 1666 1669 1672 1675 1678 1681 1684 1687 1690 1693 1696 1699 1702 1705 1708 1711 1714 1717 1720 1723
PLUMED:  1726 1729 1732 1735 1738 1741 1744 1747 1750 1753 1756 1759 1762 1765 1768 1771 1774 1777 1780 1783 1786 1789 1792 1795 1798
PLUMED:  1801 1804 1807 1810 1813 1816 1819 1822 1825 1828 1831 1834 1837 1840 1843 1846 1849 1852 1855 1858 1861 1864 1867 1870 1873
PLUMED:  1876 1879 1882 1885 1888 1891 1894 1897 1900 1903 1906 1909 1912 1915 1918 1921 1924 1927 1930 1933 1936 1939 1942 1945 1948
PLUMED:  1951 1954 1957 1960 1963 1966 1969 1972 1975 1978 1981 1984 1987 1990 1993 1996 1999 2002 2005 2008 2011 2014 2017 2020 2023
PLUMED:  2026 2029 2032 2035 2038 2041 2044 2047 2050 2053 2056 2059 2062 2065 2068 2071 2074 2077 2080 2083 2086 2089 2092 2095 2098
PLUMED:  2101 2104 2107 2110 2113 2116 2119 2122 2125 2128 2131 2134 2137 2140 2143 2146 2149 2152 2155 2158 2161 2164 2167 2170 2173
PLUMED:  2176 2179 2182 2185 2188 2191 2194 2197 2200 2203 2206 2209 2212 2215 2218 2221 2224 2227 2230 2233 2236 2239 2242 2245 2248
PLUMED:  2251 2254 2257 2260 2263 2266 2269 2272 2275 2278 2281 2284 2287 2290 2293 2296 2299 2302 2305 2308 2311 2314 2317 2320 2323
PLUMED:  2326 2329 2332 2335 2338 2341 2344 2347 2350 2353 2356 2359 2362 2365 2368 2371 2374 2377 2380 2383 2386 2389 2392 2395 2398
PLUMED:  2401 2404 2407 2410 2413 2416 2419 2422 2425 2428 2431 2434 2437 2440 2443 2446 2449 2452 2455 2458 2461 2464 2467 2470 2473
PLUMED:  2476 2479 2482 2485 2488 2491 2494 2497 2500 2503 2506 2509 2512 2515 2518 2521 2524 2527 2530 2533 2536 2539 2542 2545 2548
PLUMED:  2551 2554 2557 2560 2563 2566 2569 2572 2575 2578 2581 2584 2587 2590 2593 2596 2599 2602 2605 2608 2611 2614 2617 2620 2623
PLUMED:  2626 2629 2632 2635 2638 2641 2644 2647 2650 2653 2656 2659 2662 2665 2668 2671 2674 2677 2680 2683 2686 2689 2692 2695 2698
PLUMED:  2701 2704 2707 2710 2713 2716 2719 2722 2725 2728 2731 2734 2737 2740 2743 2746 2749 2752 2755 2758 2761 2764 2767 2770 2773
PLUMED:  2776 2779 2782 2785 2788 2791 2794 2797 2800 2803 2806 2809 2812 2815 2818 2821 2824 2827 2830 2833 2836 2839 2842 2845 2848
PLUMED:  2851 2854 2857 2860 2863 2866 2869 2872 2875 2878 2881 2884 2887 2890 2893 2896 2899 2902 2905 2908 2911 2914 2917 2920 2923
PLUMED:  2926 2929 2932 2935 2938 2941 2944 2947 2950 2953 2956 2959 2962 2965 2968 2971 2974 2977 2980 2983 2986 2989 2992 2995 2998
PLUMED: Action COORDINATION
PLUMED:   with label n
PLUMED:   between two groups of 1 and 1000 atoms
PLUMED:   first group:
PLUMED:   3001
PLUMED:   second group:
PLUMED:   1  4  7  10  13  16  19  22  25  28  31  34  37  40  43  46  49  52  55  58  61  64  67  70
PLUMED:   73  76  79  82  85  88  91  94  97  100  103  106  109  112  115  118  121  124  127  130  133  136  139  142  145
PLUMED:   148  151  154  157  160  163  166  169  172  175  178  181  184  187  190  193  196  199  202  205  208  211  214  217  220
PLUMED:   223  226  229  232  235  238  241  244  247  250  253  256  259  262  265  268  271  274  277  280  283  286  289  292  295
PLUMED:   298  301  304  307  310  313  316  319  322  325  328  331  334  337  340  343  346  349  352  355  358  361  364  367  370
PLUMED:   373  376  379  382  385  388  391  394  397  400  403  406  409  412  415  418  421  424  427  430  433  436  439  442  445
PLUMED:   448  451  454  457  460  463  466  469  472  475  478  481  484  487  490  493  496  499  502  505  508  511  514  517  520
PLUMED:   523  526  529  532  535  538  541  544  547  550  553  556  559  562  565  568  571  574  577  580  583  586  589  592  595
PLUMED:   598  601  604  607  610  613  616  619  622  625  628  631  634  637  640  643  646  649  652  655  658  661  664  667  670
PLUMED:   673  676  679  682  685  688  691  694  697  700  703  706  709  712  715  718  721  724  727  730  733  736  739  742  745
PLUMED:   748  751  754  757  760  763  766  769  772  775  778  781  784  787  790  793  796  799  802  805  808  811  814  817  820
PLUMED:   823  826  829  832  835  838  841  844  847  850  853  856  859  862  865  868  871  874  877  880  883  886  889  892  895
PLUMED:   898  901  904  907  910  913  916  919  922  925  928  931  934  937  940  943  946  949  952  955  958  961  964  967  970
PLUMED:   973  976  979  982  985  988  991  994  997  1000  1003  1006  1009  1012  1015  1018  1021  1024  1027  1030  1033  1036  1039  1042  1045
PLUMED:   1048  1051  1054  1057  1060  1063  1066  1069  1072  1075  1078  1081  1084  1087  1090  1093  1096  1099  1102  1105  1108  1111  1114  1117  1120
PLUMED:   1123  1126  1129  1132  1135  1138  1141  1144  1147  1150  1153  1156  1159  1162  1165  1168  1171  1174  1177  1180  1183  1186  1189  1192  1195
PLUMED:   1198  1201  1204  1207  1210  1213  1216  1219  1222  1225  1228  1231  1234  1237  1240  1243  1246  1249  1252  1255  1258  1261  1264  1267  1270
PLUMED:   1273  1276  1279  1282  1285  1288  1291  1294  1297  1300  1303  1306  1309  1312  1315  1318  1321  1324  1327  1330  1333  1336  1339  1342  1345
PLUMED:   1348  1351  1354  1357  1360  1363  1366  1369  1372  1375  1378  1381  1384  1387  1390  1393  1396  1399  1402  1405  1408  1411  1414  1417  1420
PLUMED:   1423  1426  1429  1432  1435  1438  1441  1444  1447  1450  1453  1456  1459  1462  1465  1468  1471  1474  1477  1480  1483  1486  1489  1492  1495
PLUMED:   1498  1501  1504  1507  1510  1513  1516  1519  1522  1525  1528  1531  1534  1537  1540  1543  1546  1549  1552  1555  1558  1561  1564  1567  1570
PLUMED:   1573  1576  1579  1582  1585  1588  1591  1594  1597  1600  1603  1606  1609  1612  1615  1618  1621  1624  1627  1630  1633  1636  1639  1642  1645
PLUMED:   1648  1651  1654  1657  1660  1663  1666  1669  1672  1675  1678  1681  1684  1687  1690  1693  1696  1699  1702  1705  1708  1711  1714  1717  1720
PLUMED:   1723  1726  1729  1732  1735  1738  1741  1744  1747  1750  1753  1756  1759  1762  1765  1768  1771  1774  1777  1780  1783  1786  1789  1792  1795
PLUMED:   1798  1801  1804  1807  1810  1813  1816  1819  1822  1825  1828  1831  1834  1837  1840  1843  1846  1849  1852  1855  1858  1861  1864  1867  1870
PLUMED:   1873  1876  1879  1882  1885  1888  1891  1894  1897  1900  1903  1906  1909  1912  1915  1918  1921  1924  1927  1930  1933  1936  1939  1942  1945
PLUMED:   1948  1951  1954  1957  1960  1963  1966  1969  1972  1975  1978  1981  1984  1987  1990  1993  1996  1999  2002  2005  2008  2011  2014  2017  2020
PLUMED:   2023  2026  2029  2032  2035  2038  2041  2044  2047  2050  2053  2056  2059  2062  2065  2068  2071  2074  2077  2080  2083  2086  2089  2092  2095
PLUMED:   2098  2101  2104  2107  2110  2113  2116  2119  2122  2125  2128  2131  2134  2137  2140  2143  2146  2149  2152  2155  2158  2161  2164  2167  2170
PLUMED:   2173  2176  2179  2182  2185  2188  2191  2194  2197  2200  2203  2206  2209  2212  2215  2218  2221  2224  2227  2230  2233  2236  2239  2242  2245
PLUMED:   2248  2251  2254  2257  2260  2263  2266  2269  2272  2275  2278  2281  2284  2287  2290  2293  2296  2299  2302  2305  2308  2311  2314  2317  2320
PLUMED:   2323  2326  2329  2332  2335  2338  2341  2344  2347  2350  2353  2356  2359  2362  2365  2368  2371  2374  2377  2380  2383  2386  2389  2392  2395
PLUMED:   2398  2401  2404  2407  2410  2413  2416  2419  2422  2425  2428  2431  2434  2437  2440  2443  2446  2449  2452  2455  2458  2461  2464  2467  2470
PLUMED:   2473  2476  2479  2482  2485  2488  2491  2494  2497  2500  2503  2506  2509  2512  2515  2518  2521  2524  2527  2530  2533  2536  2539  2542  2545
PLUMED:   2548  2551  2554  2557  2560  2563  2566  2569  2572  2575  2578  2581  2584  2587  2590  2593  2596  2599  2602  2605  2608  2611  2614  2617  2620
PLUMED:   2623  2626  2629  2632  2635  2638  2641  2644  2647  2650  2653  2656  2659  2662  2665  2668  2671  2674  2677  2680  2683  2686  2689  2692  2695
PLUMED:   2698  2701  2704  2707  2710  2713  2716  2719  2722  2725  2728  2731  2734  2737  2740  2743  2746  2749  2752  2755  2758  2761  2764  2767  2770
PLUMED:   2773  2776  2779  2782  2785  2788  2791  2794  2797  2800  2803  2806  2809  2812  2815  2818  2821  2824  2827  2830  2833  2836  2839  2842  2845
PLUMED:   2848  2851  2854  2857  2860  2863  2866  2869  2872  2875  2878  2881  2884  2887  2890  2893  2896  2899  2902  2905  2908  2911  2914  2917  2920
PLUMED:   2923  2926  2929  2932  2935  2938  2941  2944  2947  2950  2953  2956  2959  2962  2965  2968  2971  2974  2977  2980  2983  2986  2989  2992  2995
PLUMED:   2998
PLUMED:   using periodic boundary conditions
PLUMED:   contacts are counted with cutoff 0.315.  Using nativeq switching function with parameters d0=0 beta=-21.4976 lambda=1 ref=0.315
PLUMED: Action MATHEVAL
PLUMED:   with label t
PLUMED:   with arguments n
PLUMED:   with function : 1000-x
PLUMED:   with variables : x
PLUMED:   function as parsed by lepton: (1000)-(x)
PLUMED:   derivatives as computed by lepton:
PLUMED:     -1
PLUMED: Action RESTRAINT
PLUMED:   with label r
PLUMED:   with arguments t
PLUMED:   added component to this action:  r.bias
PLUMED:   at 8.466667
PLUMED:   with harmonic force constant 100.000000
PLUMED:   and linear force constant 0.000000
PLUMED:   added component to this action:  r.force2
PLUMED: Action PRINT
PLUMED:   with label @4
PLUMED:   with stride 1
PLUMED:   with arguments n t r.bias r.force2
PLUMED:   on file COLVAR_14
PLUMED:   with format  %f
PLUMED: END FILE: plumed_14.dat
PLUMED: Timestep: 0.002000
PLUMED: KbT: 2.494339
PLUMED: Relevant bibliography:
PLUMED:   [1] The PLUMED consortium, Nat. Methods 16, 670 (2019)
PLUMED:   [2] Tribello, Bonomi, Branduardi, Camilloni, and Bussi, Comput. Phys. Commun. 185, 604 (2014)
PLUMED: Please read and cite where appropriate!
PLUMED: Finished setup
Started mdrun on rank 0 Mon Feb 12 16:56:28 2024

           Step           Time
              0        0.00000

   Energies (kJ/mol)
        LJ (SR)  Disper. corr.   Coulomb (SR)   Coul. recip.      LJ recip.
    1.29088e+04   -1.81146e-01   -5.95046e+04    2.51779e+02   -3.38998e+03
      Potential    Kinetic En.   Total Energy  Conserved En.    Temperature
   -4.97342e+04    7.52146e+03   -4.22128e+04   -4.22110e+04    3.01391e+02
   -1.02756e-01    5.43922e+02

	<====  A V E R A G E S  ====>

	Statistics over 50001 steps using 501 frames

   Energies (kJ/mol)
        LJ (SR)  Disper. corr.   Coulomb (SR)   Coul. recip.      LJ recip.
    1.25842e+04   -1.77858e-01   -5.93467e+04    2.40829e+02   -3.33322e+03
      Potential    Kinetic En.   Total Energy  Conserved En.    Temperature
   -4.98551e+04    7.50786e+03   -4.23473e+04   -4.20616e+04    3.00845e+02
 Pres. DC (bar) Pressure (bar)
   -9.90829e-02    6.81518e+00

          Box-X          Box-Y          Box-Z
    3.10211e+00    3.10211e+00    3.10211e+00

   Total Virial (kJ/mol)
    2.59304e+03    1.45697e+01   -3.65804e+00
    1.45589e+01    2.57234e+03    1.09219e+01
    1.07097e+00    1.74674e+00    2.33507e+03

   Pressure (bar)
   -9.70598e+01   -2.00108e+01    4.01641e+00
   -1.99985e+01   -7.56778e+01   -1.24182e+01
   -1.13880e+00   -2.15868e+00    1.93183e+02
